@<TRIPOS>MOLECULE
tmp/babelCmovfU
 44 46 0 0 0
SMALL
GASTEIGER
Energy = 0

@<TRIPOS>ATOM
      1 C1          4.6553   -7.1279   -0.2260 C.3     1  <1>        -0.0358
      2 C2          5.1714   -5.9348   -1.0788 C.3     1  <1>        -0.0358
      3 C3          6.1996   -5.2250   -0.1624 C.3     1  <1>         0.0138
      4 C4          5.5423   -4.1350    0.7304 C.3     1  <1>         0.0000
      5 C5          4.3358   -4.6886    1.5424 C.3     1  <1>         0.1059
      6 C6          4.6850   -6.0814    2.1342 C.3     1  <1>         0.0000
      7 C7          5.4211   -6.9954    1.1148 C.3     1  <1>         0.0138
      8 N1          6.6672   -6.3511    0.6647 N.3     1  <1>        -0.2992
      9 C8          7.8093   -6.1818    1.5889 C.3     1  <1>        -0.0122
     10 H1          4.9471   -8.0764   -0.7088 H       1  <1>         0.0281
     11 H2          3.5622   -7.1414   -0.0928 H       1  <1>         0.0281
     12 H3          4.3738   -5.2551   -1.4099 H       1  <1>         0.0281
     13 H4          5.6879   -6.3135   -1.9776 H       1  <1>         0.0281
     14 H5          7.0257   -4.7853   -0.7480 H       1  <1>         0.0464
     15 H6          6.3014   -3.7478    1.4265 H       1  <1>         0.0316
     16 H7          5.2325   -3.2943    0.0921 H       1  <1>         0.0316
     17 O1          3.1455   -4.8343    0.7349 O.3     1  <1>        -0.4608
     18 H8          4.1019   -4.0182    2.3902 H       1  <1>         0.0735
     19 H9          3.7564   -6.5723    2.4672 H       1  <1>         0.0316
     20 H10         5.3287   -5.9609    3.0192 H       1  <1>         0.0316
     21 H11         5.6191   -7.9831    1.5658 H       1  <1>         0.0464
     22 H12         8.0810   -7.1633    2.0049 H       1  <1>         0.0391
     23 H13         7.5976   -5.4953    2.4198 H       1  <1>         0.0391
     24 H14         8.6722   -5.7956    1.0262 H       1  <1>         0.0391
     25 C9          2.5717   -3.6808    0.3582 C.2     1  <1>         0.3171
     26 O2          2.9603   -2.5816    0.7206 O.2     1  <1>        -0.2501
     27 C10         1.3731   -3.8158   -0.5442 C.3     1  <1>         0.1044
     28 C11         0.1229   -3.4876    0.2954 C.ar    1  <1>        -0.0315
     29 C12        -0.7149   -2.3916    0.0455 C.ar    1  <1>        -0.0577
     30 C13        -1.8476   -2.1670    0.8347 C.ar    1  <1>        -0.0615
     31 C14        -2.1449   -3.0212    1.8988 C.ar    1  <1>        -0.0617
     32 C15        -1.3076   -4.1069    2.1660 C.ar    1  <1>        -0.0615
     33 C16        -0.1852   -4.3369    1.3659 C.ar    1  <1>        -0.0577
     34 H15         1.2790   -4.8623   -0.8751 H       1  <1>         0.0485
     35 O3          2.7125   -3.3884   -2.5826 O.3     1  <1>        -0.3939
     36 C17         1.5806   -2.9435   -1.8124 C.3     1  <1>         0.0612
     37 H16        -0.5085   -1.6942   -0.7576 H       1  <1>         0.0621
     38 H17        -2.4992   -1.3247    0.6217 H       1  <1>         0.0618
     39 H18        -3.0207   -2.8412    2.5152 H       1  <1>         0.0618
     40 H19        -1.5300   -4.7705    2.9961 H       1  <1>         0.0618
     41 H20         0.4528   -5.1879    1.5849 H       1  <1>         0.0621
     42 H21         2.6094   -4.2643   -2.9424 H       1  <1>         0.2094
     43 H22         0.6795   -2.9625   -2.4489 H       1  <1>         0.0568
     44 H23         1.7861   -1.9006   -1.5221 H       1  <1>         0.0568
@<TRIPOS>BOND
     1     1     2    1
     2     1     7    1
     3     1    10    1
     4     1    11    1
     5     2     3    1
     6     2    12    1
     7     2    13    1
     8     3     4    1
     9     3     8    1
    10     3    14    1
    11     4     5    1
    12     4    15    1
    13     4    16    1
    14     5     6    1
    15     5    17    1
    16     5    18    1
    17     6     7    1
    18     6    19    1
    19     6    20    1
    20     7     8    1
    21     7    21    1
    22     8     9    1
    23     9    22    1
    24     9    23    1
    25     9    24    1
    26    17    25    1
    27    25    26    2
    28    25    27    1
    29    27    28    1
    30    27    34    1
    31    27    36    1
    32    28    29   ar
    33    28    33   ar
    34    29    30   ar
    35    29    37    1
    36    30    31   ar
    37    30    38    1
    38    31    32   ar
    39    31    39    1
    40    32    33   ar
    41    32    40    1
    42    33    41    1
    43    35    36    1
    44    35    42    1
    45    36    43    1
    46    36    44    1

