@<TRIPOS>MOLECULE
28800242
 27 30 0 0 0
SMALL
GASTEIGER
Energy = 0

@<TRIPOS>ATOM
      1 C1          0.0000    0.0000    0.0000 C.3     1  <1>         0.0267
      2 C2          0.0000    0.0000    0.0000 C.3     1  <1>         0.1275
      3 H1          0.0000    0.0000    0.0000 H       1  <1>         0.0621
      4 C3          0.0000    0.0000    0.0000 C.2     1  <1>         0.2550
      5 O1          0.0000    0.0000    0.0000 O.2     1  <1>        -0.2719
      6 N1          0.0000    0.0000    0.0000 N.am    1  <1>        -0.2099
      7 C4          0.0000    0.0000    0.0000 C.3     1  <1>         0.0840
      8 H2          0.0000    0.0000    0.0000 H       1  <1>         0.0548
      9 C5          0.0000    0.0000    0.0000 C.3     1  <1>         0.0431
     10 C6          0.0000    0.0000    0.0000 C.3     1  <1>         0.1523
     11 S1          0.0000    0.0000    0.0000 S.o2    1  <1>        -0.0086
     12 O2          0.0000    0.0000    0.0000 O.2     1  <1>        -0.1729
     13 O3          0.0000    0.0000    0.0000 O.2     1  <1>        -0.1729
     14 C7          0.0000    0.0000    0.0000 C.3     1  <1>         0.1667
     15 N2          0.0000    0.0000    0.0000 N.pl3   1  <1>        -0.2361
     16 C8          0.0000    0.0000    0.0000 C.ar    1  <1>         0.0653
     17 C9          0.0000    0.0000    0.0000 C.ar    1  <1>         0.0158
     18 C10         0.0000    0.0000    0.0000 C.ar    1  <1>        -0.0029
     19 C11         0.0000    0.0000    0.0000 C.ar    1  <1>        -0.0221
     20 C12         0.0000    0.0000    0.0000 C.ar    1  <1>        -0.0067
     21 C13         0.0000    0.0000    0.0000 C.ar    1  <1>         0.0142
     22 C14         0.0000    0.0000    0.0000 C.ar    1  <1>         0.0012
     23 C15         0.0000    0.0000    0.0000 C.ar    1  <1>        -0.0003
     24 C16         0.0000    0.0000    0.0000 C.ar    1  <1>        -0.0043
     25 C17         0.0000    0.0000    0.0000 C.ar    1  <1>        -0.0221
     26 C18         0.0000    0.0000    0.0000 C.3     1  <1>         0.0310
     27 C19         0.0000    0.0000    0.0000 C.3     1  <1>         0.0310
@<TRIPOS>BOND
     1     1     2    1
     2     2     3    1
     3     2     4    1
     4     4     5    2
     5     4     6   am
     6     6     7    1
     7     7     8    1
     8     7     9    1
     9     9    10    1
    10    10    11    1
    11    11    12    2
    12    11    13    2
    13    11    14    1
    14     7    14    1
    15     2    15    1
    16    15    16    1
    17    16    17   ar
    18    17    18   ar
    19    18    19   ar
    20    19    20   ar
    21    20    21   ar
    22    16    21   ar
    23    21    22   ar
    24    22    23   ar
    25    23    24   ar
    26    24    25   ar
    27    20    25   ar
    28    25    26    1
    29    26    27    1
    30    19    27    1

