@<TRIPOS>MOLECULE
28300142
 20 21 0 0 0
SMALL
GASTEIGER
Energy = 0

@<TRIPOS>ATOM
      1 C1          0.0000    0.0000    0.0000 C.3     1  <1>         0.1743
      2 O1          0.0000    0.0000    0.0000 O.3     1  <1>        -0.3471
      3 C2          0.0000    0.0000    0.0000 C.3     1  <1>         0.1895
      4 C3          0.0000    0.0000    0.0000 C.3     1  <1>         0.2403
      5 O2          0.0000    0.0000    0.0000 O.3     1  <1>        -0.4456
      6 C4          0.0000    0.0000    0.0000 C.2     1  <1>         0.3208
      7 O3          0.0000    0.0000    0.0000 O.2     1  <1>        -0.2500
      8 C5          0.0000    0.0000    0.0000 C.3     1  <1>         0.1544
      9 C6          0.0000    0.0000    0.0000 C.3     1  <1>         0.1955
     10 H1          0.0000    0.0000    0.0000 H       1  <1>         0.0844
     11 C7          0.0000    0.0000    0.0000 C.2     1  <1>         0.2787
     12 O4          0.0000    0.0000    0.0000 O.2     1  <1>        -0.2696
     13 N1          0.0000    0.0000    0.0000 N.am    1  <1>        -0.1735
     14 C8          0.0000    0.0000    0.0000 C.ar    1  <1>         0.1073
     15 C9          0.0000    0.0000    0.0000 C.ar    1  <1>         0.0197
     16 C10         0.0000    0.0000    0.0000 C.ar    1  <1>         0.0015
     17 C11         0.0000    0.0000    0.0000 C.ar    1  <1>         0.0032
     18 C12         0.0000    0.0000    0.0000 C.ar    1  <1>         0.0382
     19 C13         0.0000    0.0000    0.0000 C.ar    1  <1>         0.1536
     20 O5          0.0000    0.0000    0.0000 O.3     1  <1>        -0.4758
@<TRIPOS>BOND
     1     1     2    1
     2     2     3    1
     3     3     4    1
     4     4     5    1
     5     5     6    1
     6     6     7    2
     7     6     8    1
     8     8     9    1
     9     9    10    1
    10     9    11    1
    11    11    12    2
    12    11    13   am
    13    13    14    1
    14    14    15   ar
    15    15    16   ar
    16    16    17   ar
    17    17    18   ar
    18    18    19   ar
    19    14    19   ar
    20    19    20    1
    21     9    20    1

