@<TRIPOS>MOLECULE
ZINC21200102
 35 38 0 0 0
SMALL
GASTEIGER
Energy = 0

@<TRIPOS>ATOM
      1 C1         -9.2293   10.3277   -1.5366 C.ar    1  <0>1       -0.1187
      2 C2         -9.2833   10.4292   -0.1542 C.ar    1  <0>1       -0.0838
      3 C3         -8.4427    9.6736    0.6359 C.ar    1  <0>1       -0.0944
      4 C4         -7.5361    8.8053    0.0467 C.ar    1  <0>1        0.0183
      5 C5         -7.4785    8.6998   -1.3512 C.ar    1  <0>1        0.0163
      6 C6         -8.3354    9.4708   -2.1384 C.ar    1  <0>1       -0.0540
      7 N1         -6.5106    7.7852   -1.6306 N.ar    1  <0>1       -0.4462
      8 C7         -6.0061    7.3551   -0.5135 C.ar    1  <0>1        0.2498
      9 O1         -6.6083    7.9494    0.5286 O.2     1  <0>1       -0.2042
     10 C8         -4.9064    6.3306   -0.4031 C.3     1  <0>1       -0.0348
     11 S1         -3.2973    7.1681   -0.4055 S.3     1  <0>1        0.0925
     12 C9         -2.1321    5.8531   -0.2723 C.ar    1  <0>1        0.0370
     13 N2         -2.3440    4.5534   -0.1886 N.ar    1  <0>1       -0.2746
     14 N3         -1.2763    3.6907   -0.0965 N.ar    1  <0>1       -0.3580
     15 C10        -0.0468    4.1673   -0.0810 C.ar    1  <0>1        0.3410
     16 S2         -0.3481    5.9229   -0.2147 S.2     1  <0>1        0.0340
     17 N4          1.1613    3.4852    0.0092 N.pl3   1  <0>1       -0.6119
     18 C11         1.1698    2.1040    0.2294 C.ar    1  <0>1        0.1372
     19 C12        -0.0118    1.4400    0.5311 C.ar    1  <0>1       -0.1349
     20 C13        -0.0003    0.0757    0.7476 C.ar    1  <0>1       -0.0936
     21 C14         1.1859   -0.6300    0.6638 C.ar    1  <0>1       -0.1154
     22 C15         2.3654    0.0265    0.3636 C.ar    1  <0>1       -0.1229
     23 C16         2.3619    1.3921    0.1465 C.ar    1  <0>1        0.0599
     24 F1          3.5143    2.0338   -0.1459 F       1  <0>1       -0.1387
     25 H1         -9.8931   10.9245   -2.1447 H       1  <0>1        0.1414
     26 H2         -9.9884   11.1051    0.3066 H       1  <0>1        0.1445
     27 H3         -8.4902    9.7581    1.7116 H       1  <0>1        0.1391
     28 H4         -8.2976    9.3952   -3.2151 H       1  <0>1        0.1399
     29 H5         -5.0243    5.7656    0.5333 H       1  <0>1        0.1365
     30 H6         -4.9616    5.6399   -1.2575 H       1  <0>1        0.1478
     31 H7          2.1104    4.0318   -0.0926 H       1  <0>1        0.4638
     32 H8         -0.9399    1.9891    0.5921 H       1  <0>1        0.1736
     33 H9         -0.9194   -0.4406    0.9822 H       1  <0>1        0.1357
     34 H10         1.1911   -1.6967    0.8329 H       1  <0>1        0.1360
     35 H11         3.2901   -0.5278    0.2990 H       1  <0>1        0.1420
@<TRIPOS>BOND
     1     1     6   ar
     2     1     2   ar
     3     1    25    1
     4     2     3   ar
     5     2    26    1
     6     3     4   ar
     7     3    27    1
     8     4     9   ar
     9     4     5   ar
    10     5     6   ar
    11     5     7   ar
    12     6    28    1
    13     7     8   ar
    14     8     9   ar
    15     8    10    1
    16    10    11    1
    17    10    29    1
    18    10    30    1
    19    11    12    1
    20    12    16   ar
    21    12    13   ar
    22    13    14   ar
    23    14    15   ar
    24    15    16   ar
    25    15    17    1
    26    17    18    1
    27    17    31    1
    28    18    23   ar
    29    18    19   ar
    30    19    20   ar
    31    19    32    1
    32    20    21   ar
    33    20    33    1
    34    21    22   ar
    35    21    34    1
    36    22    23   ar
    37    22    35    1
    38    23    24    1

