@<TRIPOS>MOLECULE
ZINC21000102
 48 51 0 0 0
SMALL
GASTEIGER
Energy = 0

@<TRIPOS>ATOM
      1 C1          1.6209   -9.1564   -1.3369 C.3     1  <0>1       -0.2052
      2 C2          2.4153   -8.1952   -0.4907 C.2     1  <0>1        0.3957
      3 O1          3.4098   -8.5770    0.0895 O.2     1  <0>1       -0.4613
      4 C3          1.9856   -6.7965   -0.3685 C.ar    1  <0>1       -0.1929
      5 C4          2.7786   -5.8764    0.3289 C.ar    1  <0>1       -0.0382
      6 C5          2.3747   -4.5763    0.4404 C.ar    1  <0>1       -0.1387
      7 C6          1.1768   -4.1651   -0.1383 C.ar    1  <0>1        0.1859
      8 C7          0.3827   -5.0775   -0.8279 C.ar    1  <0>1       -0.1594
      9 C8          0.7812   -6.3785   -0.9486 C.ar    1  <0>1       -0.0521
     10 N1          0.7691   -2.8390   -0.0220 N.am    1  <0>1       -0.6755
     11 C9          1.6841   -1.8494   -0.0312 C.2     1  <0>1        0.6096
     12 O2          2.8695   -2.1178   -0.0575 O.2     1  <0>1       -0.5066
     13 C10         1.2466   -0.4392   -0.0092 C.ar    1  <0>1       -0.0074
     14 C11         2.0832    0.7023   -0.0153 C.ar    1  <0>1       -0.1793
     15 C12         1.2453    1.7651    0.0109 C.ar    1  <0>1        0.0327
     16 N2         -0.0150    1.2805    0.0315 N.ar    1  <0>1       -0.2724
     17 N3          0.0026   -0.0040    0.0194 N.ar    1  <0>1       -0.2628
     18 C13        -1.2280    2.1016    0.0574 C.3     1  <0>1        0.1384
     19 H1         -0.8828    3.1460    0.0641 H       1  <0>1        0.1349
     20 C14        -2.0824    1.8052   -1.1863 C.3     1  <0>1       -0.1402
     21 C15        -3.4946    2.4146   -1.0138 C.3     1  <0>1       -0.5807
     22 S1         -3.7183    2.4053    0.8117 S.o2    1  <0>1        2.3949
     23 O3         -3.8465    3.7447    1.2686 O.2     1  <0>1       -0.9219
     24 O4         -4.7167    1.4525    1.1503 O.2     1  <0>1       -0.9205
     25 C16        -2.0708    1.7540    1.3176 C.3     1  <0>1       -0.6020
     26 C17         1.6445    3.2182    0.0155 C.3     1  <0>1       -0.1941
     27 C18         2.9064    3.6066   -0.7575 C.3     1  <0>1       -0.1038
     28 C19         2.9186    3.5984    0.7725 C.3     1  <0>1       -0.1047
     29 H2          0.7615   -8.6314   -1.7794 H       1  <0>1        0.0837
     30 H3          1.2610   -9.9856   -0.7101 H       1  <0>1        0.0958
     31 H4          2.2604   -9.5537   -2.1389 H       1  <0>1        0.0959
     32 H5          3.7082   -6.1943    0.7774 H       1  <0>1        0.1368
     33 H6          2.9855   -3.8661    0.9780 H       1  <0>1        0.1450
     34 H7         -0.5476   -4.7552   -1.2717 H       1  <0>1        0.1333
     35 H8          0.1666   -7.0846   -1.4872 H       1  <0>1        0.1391
     36 H9         -0.2998   -2.5989    0.0774 H       1  <0>1        0.4445
     37 H10         3.1628    0.7214   -0.0360 H       1  <0>1        0.1648
     38 H11        -1.6036    2.2453   -2.0735 H       1  <0>1        0.1064
     39 H12        -2.1710    0.7169   -1.3194 H       1  <0>1        0.1071
     40 H13        -3.5107    3.4289   -1.4392 H       1  <0>1        0.1496
     41 H14        -4.2313    1.7864   -1.5358 H       1  <0>1        0.1547
     42 H15        -2.0557    0.6662    1.4802 H       1  <0>1        0.1592
     43 H16        -1.6445    2.2618    2.1953 H       1  <0>1        0.1535
     44 H17         0.5970    3.5538    0.0256 H       1  <0>1        0.1184
     45 H18         3.2176    2.7674   -1.3969 H       1  <0>1        0.1085
     46 H19         2.6967    4.4864   -1.3836 H       1  <0>1        0.1111
     47 H20         2.7189    4.4714    1.4112 H       1  <0>1        0.1115
     48 H21         3.2398    2.7524    1.3979 H       1  <0>1        0.1086
@<TRIPOS>BOND
     1     1     2    1
     2     1    29    1
     3     1    30    1
     4     1    31    1
     5     2     3    2
     6     2     4    1
     7     4     9   ar
     8     4     5   ar
     9     5     6   ar
    10     5    32    1
    11     6     7   ar
    12     6    33    1
    13     7     8   ar
    14     7    10    1
    15     8     9   ar
    16     8    34    1
    17     9    35    1
    18    10    11   am
    19    10    36    1
    20    11    12    2
    21    11    13    1
    22    13    17   ar
    23    13    14   ar
    24    14    15   ar
    25    14    37    1
    26    15    16   ar
    27    15    26    1
    28    16    17   ar
    29    16    18    1
    30    18    19    1
    31    18    25    1
    32    18    20    1
    33    20    21    1
    34    20    38    1
    35    20    39    1
    36    21    22    1
    37    21    40    1
    38    21    41    1
    39    22    23    2
    40    22    24    2
    41    22    25    1
    42    25    42    1
    43    25    43    1
    44    26    28    1
    45    26    27    1
    46    26    44    1
    47    27    28    1
    48    27    45    1
    49    27    46    1
    50    28    47    1
    51    28    48    1

